C 106 0 106 0
C 126 20 126 20
Q 465 37 465 35
Z 97 0 97 0
Z 330 233 330 233
NB 138 0 138 0
NB 189 51 189 51
AC 318 0 318 0
AC 328 10 328 10
AC 328 10 328 0
AC 329 1 329 1
RC 130 0 130 0
RC 135 5 135 5
WC 18 0 18 0
WC 127 109 127 109
GD 460 0 460 0
GD 460 0 460 0
GD 460 0 460 0
GD 460 0 460 0
GD 484 24 484 24
DF 442 342 442 341
HF 17 0 17 0
HF 17 0 17 0
HF 190 173 190 173
MF 262 72 262 5
MF 265 9 265 3
MF 308 47 308 43
MF 324 60 324 16
MF 326 19 326 2
FG 189 177 189 176
SG 58 0 58 0
SG 188 130 188 130
VG 105 0 105 0
VG 189 84 189 84
WG 150 7 150 1
WG 150 1 150 0
WG 203 53 203 53
BH 138 0 138 0
BH 138 0 138 0
BH 190 52 190 52
FH 200 0 200 0
FH 202 2 202 2
KH 170 0 170 0
KH 190 20 190 20
MH 254 11 254 0
MH 254 0 254 0
MH 254 0 254 0
MH 254 0 254 0
MH 259 5 259 5
AI 100 4 100 4
AI 100 4 100 0
AI 100 0 100 0
AI 100 0 100 0
AI 100 0 100 0
AI 100 0 100 0
AI 104 4 104 4
DI 207 0 207 0
DI 235 28 235 28
DI 235 28 235 0
DI 235 0 235 0
DI 296 61 296 61
DI 306 72 306 10
DI 306 10 306 0
DI 306 0 306 0
DI 312 6 312 6
GK 96 0 96 0
GK 203 107 203 107
JK 195 57 195 3
SK 162 0 162 0
SK 166 4 166 4
SK 166 4 166 0
SK 166 0 166 0
SK 186 20 186 20
ZK 177 0 177 0
ZK 189 12 189 12
RL 141 3 141 3
WL 127 31 127 0
WL 127 0 127 0
WL 127 0 127 0
WL 235 108 235 108
FN 443 0 443 0
FN 443 0 443 0
FN 443 0 443 0
FN 443 0 443 0
FN 444 1 444 1
IN 136 0 136 0
IN 186 50 186 50
JN 126 25 126 0
JN 195 69 195 69
JN 195 69 195 0
JN 195 0 195 0
JN 195 0 195 0
JN 198 3 198 3
ON 476 0 476 0
FP 924 0 924 0
FP 941 17 941 17
QP 192 57 192 3
EQ 122 24 122 0
EQ 122 0 122 0
EQ 122 0 122 0
EQ 122 0 122 0
EQ 122 0 122 0
EQ 122 0 122 0
EQ 173 51 173 51
EQ 173 51 173 0
EQ 173 0 173 0
EQ 173 0 173 0
EQ 189 16 189 16
EQ 189 16 189 0
EQ 190 1 190 1
EQ 190 1 190 0
EQ 190 0 190 0
EQ 190 0 190 0
EQ 194 4 194 4
FQ 107 0 107 0
FQ 403 296 403 296
FQ 435 328 435 32
FQ 454 51 454 19
FQ 486 51 486 32
OQ 145 8 145 1
OQ 324 181 324 179
PQ 87 0 87 0
PQ 187 100 187 100
SR 102 1 102 0
SR 102 0 102 0
SR 199 97 199 97
XR 191 57 191 3
BS 14 0 14 0
BS 263 249 263 249
ET 198 63 198 63
PT 371 5 371 0
PT 371 0 371 0
PT 371 0 371 0
PT 371 0 371 0
PT 371 0 371 0
PT 393 22 393 22
QT 970 0 970 0
BV 289 0 289 0
BV 323 34 323 34
CV 124 0 124 0
CV 185 61 185 61
OV 441 0 441 0
OV 441 0 441 0
OV 464 23 464 23
RV 78 0 78 0
RV 119 41 119 41
RV 122 44 122 3
RV 122 3 122 0
RV 122 0 122 0
RV 198 76 198 76
RV 280 159 280 82
GW 117 0 117 0
GW 198 81 198 81
LW 185 0 185 0
LW 190 5 190 5
MW 540 119 540 4
NW 76 0 76 0
NW 99 23 99 23
PW 124 47 124 25
PW 124 25 124 0
PW 124 0 124 0
PW 124 0 124 0
PW 124 0 124 0
PW 124 0 124 0
PW 168 44 168 44
SW 197 43 197 43
TW 146 0 146 0
TW 198 52 198 52
AX 516 347 516 347
AX 518 349 518 2
DX 104 0 104 0
DX 325 221 325 221
LX 109 0 109 0
LX 122 13 122 13
PX 73 6 73 6
PX 196 129 196 123
QX 474 0 474 0
VY 388 13 388 13
VY 388 13 388 0
VY 388 0 388 0
VY 388 0 388 0
VY 392 4 392 4
GAA 197 7 197 4
GAA 199 6 199 2
GAA 203 6 203 4
PAA 77 0 77 0
PAA 184 108 184 107
RAA 157 0 157 0
RAA 184 27 184 27
SAA 100 0 100 0
SAA 184 84 184 84
TBA 105 8 105 0
TBA 140 35 140 35
TBA 140 35 140 0
TBA 140 0 140 0
TBA 140 0 140 0
BCA 158 90 158 84
BCA 164 90 164 6
BCA 209 51 209 45
BCA 210 47 210 1
BCA 276 67 276 66
BCA 320 110 320 44
CCA 144 0 144 0
CCA 184 40 184 40
NCA 382 0 382 0
NCA 382 0 382 0
NCA 384 2 384 2
PCA 74 0 74 0
PCA 97 23 97 23
YCA 256 16 256 0
YCA 256 0 256 0
YCA 256 0 256 0
YCA 256 0 256 0
YCA 258 2 258 2
EDA 324 83 324 62
HDA 158 2 158 1
HDA 374 217 374 216
HDA 374 216 374 0
YEA 229 0 229 0
WFA 81 0 81 0
WFA 98 17 98 17
FGA 168 0 168 0
FGA 183 15 183 15
TGA 712 228 712 7
WGA 152 0 152 0
WGA 182 30 182 30
GHA 67 3 67 0
GHA 67 0 67 0
GHA 111 44 111 44
KHA 309 6 309 6
SHA 98 0 98 0
SHA 137 39 137 39
SHA 137 39 137 0
GIA 135 0 135 0
GIA 182 47 182 47
KIA 101 0 101 0
KIA 119 18 119 18
KIA 130 29 130 11
KIA 184 65 184 54
KIA 187 57 187 3
PIA 254 19 254 3
QJA 101 0 101 0
QJA 119 18 119 18
OKA 305 4 305 4
BLA 186 57 186 3
DLA 131 0 131 0
DLA 139 8 139 8
ELA 142 0 142 0
ELA 142 0 142 0
KPA 369 0 369 0
KPA 387 18 387 18
QPA 184 2 184 1
QPA 186 3 186 2
QPA 186 2 186 0
QPA 186 0 186 0
QPA 186 0 186 0
QPA 186 0 186 0
QPA 186 0 186 0
QPA 191 5 191 5
BQA 249 66 249 66
GQA 139 8 139 1
GQA 318 181 318 179
OQA 940 0 940 0
OQA 941 1 941 1
PQA 164 0 164 0
PQA 174 10 174 10
PQA 178 14 178 4
PQA 178 4 178 0
PQA 178 0 178 0
PQA 184 6 184 6
FRA 147 0 147 0
FRA 177 30 177 30
URA 119 0 119 0
URA 188 69 188 69
URA 188 69 188 0
URA 188 0 188 0
URA 188 0 188 0
URA 192 4 192 4
WRA 142 0 142 0
WRA 179 37 179 37
EVA 485 1 485 0
EVA 489 4 489 4
HVA 100 0 100 0
HVA 177 77 177 77
EWA 97 0 97 0
EWA 192 95 192 95
XWA 173 47 173 47
XWA 177 51 177 4
YWA 74 6 74 6
ZWA 147 0 147 0
ZWA 177 30 177 30
LXA 152 22 152 16
LXA 152 16 152 0
LXA 152 0 152 0
VXA 147 1 147 0
VXA 147 0 147 0
VXA 190 43 190 43
WXA 147 0 147 0
WXA 177 30 177 30
XXA 92 37 92 3
PBB 874 0 874 0
PBB 874 0 874 0
PBB 874 0 874 0
PBB 878 4 878 4
PBB 878 4 878 0
PBB 878 0 878 0
PBB 878 0 878 0
PBB 895 17 895 17
GCB 128 65 128 0
GCB 172 44 172 44
GCB 176 48 176 4
GCB 424 253 424 248
GCB 424 248 424 0
GCB 424 0 424 0
GCB 424 0 424 0
GCB 424 0 424 0
GCB 424 0 424 0
GCB 728 304 728 304
GCB 728 304 728 0
GCB 728 0 728 0
GCB 728 0 728 0
GCB 732 4 732 4
DDB 113 0 113 0
DDB 113 0 113 0
EDB 130 0 130 0
EDB 132 2 132 2
EDB 132 2 132 0
KDB 158 0 158 0
KDB 158 0 158 0
RDB 394 0 394 0
RDB 394 0 394 0
RDB 394 0 394 0
RDB 394 0 394 0
RDB 413 19 413 19
RDB 414 20 414 1
RDB 414 1 414 0
RDB 789 375 789 375
CEB 92 37 92 3
DEB 385 18 385 18
FEB 51 1 51 0
FEB 51 0 51 0
FEB 51 0 51 0
FEB 51 0 51 0
FEB 51 0 51 0
FEB 174 123 174 123
KEB 302 19 302 19
MEB 384 18 384 18
QEB 99 0 99 0
QEB 178 79 178 79
YGB 506 4 506 4
PHB 94 7 94 7
PHB 189 102 189 95
AIB 718 204 718 191
AIB 732 206 732 14
AIB 732 14 732 0
AIB 733 1 733 1
AJB 101 0 101 0
AJB 315 214 315 214
RJB 113 24 113 0
RJB 113 0 113 0
RJB 115 2 115 2
RJB 115 2 115 0
RJB 115 0 115 0
RJB 115 0 115 0
RJB 174 59 174 59
ZJB 151 0 151 0
ZJB 155 4 155 4
ZJB 155 4 155 0
ZJB 170 16 170 15
ZJB 174 20 174 4
DKB 496 18 496 4
IKB 89 0 89 0
CMB 143 0 143 0
CMB 173 30 173 30
GMB 89 49 89 0
GMB 89 0 89 0
GMB 89 0 89 0
GMB 94 5 94 5
GMB 175 86 175 81
GMB 175 81 175 0
QMB 302 0 302 0
YMB 108 0 108 0
YMB 188 80 188 80
ANB 143 0 143 0
ANB 313 170 313 170
UNB 16 4 16 4
UNB 184 172 184 168
EOB 88 0 88 0
EOB 88 0 88 0
EOB 93 5 93 5
EOB 171 84 171 78
EOB 171 78 171 0
TRB 285 0 285 0
TRB 285 0 285 0
TRB 285 0 285 0
TRB 285 0 285 0
TRB 298 13 298 13
WRB 171 170 171 165
ZRB 112 0 112 0
ZRB 186 74 186 74
FSB 220 107 220 107
LSB 299 0 299 0
OSB 48 0 48 0
OSB 48 0 48 0
OSB 312 264 312 264
ETB 120 0 120 0
ETB 184 64 184 64
TTB 110 0 110 0
TTB 172 62 172 62
WTB 178 57 178 3
QUB 132 0 132 0
QUB 172 40 172 40
UUB 124 3 124 3
YUB 162 0 162 0
YUB 171 9 171 9
DVB 273 47 273 0
DVB 273 0 273 0
DVB 273 0 273 0
DVB 273 0 273 0
DVB 273 0 273 0
DVB 440 167 440 167
DVB 440 167 440 0
DVB 440 0 440 0
DVB 440 0 440 0
DVB 440 0 440 0
QVB 190 6 190 4
FZB 132 0 132 0
FZB 168 36 168 36
NZB 185 51 185 51
FAC 111 0 111 0
FAC 122 11 122 11
FAC 122 12 122 0
FAC 128 7 128 6
WAC 99 89 99 86
SBC 86 37 86 3
WBC 94 0 94 0
WBC 243 149 243 149
WBC 243 149 243 0
WBC 243 0 243 0
WBC 243 0 243 0
WBC 309 66 309 66
XBC 110 0 110 0
XBC 170 60 170 60
YBC 93 2 93 2
YBC 182 92 182 89
HCC 470 256 470 2
DDC 149 4 149 4
DDC 149 4 149 0
DDC 149 0 149 0
DDC 169 20 169 20
GDC 140 0 140 0
GDC 183 43 183 43
VDC 150 1 150 0
VDC 160 10 160 10
VDC 160 10 160 0
ZDC 387 11 387 11
TFC 100 0 100 0
TFC 309 209 309 209
PGC 168 0 168 0
PGC 169 1 169 1
SGC 91 79 91 0
SGC 93 3 93 2
SGC 182 92 182 89
TGC 118 0 118 0
TGC 182 64 182 64
VGC 110 0 110 0
VGC 115 5 115 5
DHC 110 0 110 0
DHC 311 201 311 201
JHC 243 19 243 18
WHC 101 0 101 0
WHC 101 0 101 0
WHC 101 0 101 0
WHC 101 0 101 0
WHC 102 1 102 1
WHC 156 55 156 54
WHC 156 54 156 0
UKC 536 105 536 51
UKC 536 51 536 0
EMC 58 0 58 0
EMC 58 0 58 0
EMC 59 1 59 1
EMC 59 1 59 0
EMC 59 0 59 0
EMC 59 0 59 0
EMC 166 107 166 107
EMC 261 203 261 95
KMC 118 0 118 0
KMC 168 50 168 50
OMC 97 0 97 0
OMC 168 71 168 71
PMC 874 1 874 1
RMC 144 0 144 0
RMC 148 4 148 4
RMC 148 4 148 0
RMC 148 0 148 0
RMC 168 20 168 20
TMC 109 0 109 0
TMC 170 61 170 61
VMC 46 33 46 0
VMC 46 0 46 0
VMC 46 0 46 0
VMC 81 35 81 35
VMC 81 35 81 0
VMC 104 23 104 23
VMC 104 24 104 0
VMC 104 0 104 0
VMC 104 0 104 0
VMC 104 0 104 0
VMC 104 0 104 0
VMC 104 0 104 0
VMC 165 61 165 61
JNC 378 8 378 8
PPC 172 91 172 91
PPC 210 129 210 38
PPC 232 61 232 22
PPC 232 22 232 0
SPC 180 142 180 142
TPC 147 28 147 21
TPC 147 21 147 0
TPC 147 0 147 0
TPC 265 118 265 118
TPC 265 118 265 0
TPC 265 0 265 0
AQC 296 0 296 0
AQC 341 45 341 45
AQC 341 45 341 0
AQC 342 1 342 1
GQC 145 4 145 4
GQC 145 4 145 0
GQC 145 0 145 0
GQC 165 20 165 20
JQC 108 0 108 0
JQC 169 61 169 61
XQC 616 471 616 471
XQC 618 473 618 2
RRC 403 0 403 0
RRC 403 0 403 0
RRC 403 0 403 0
RRC 445 42 445 42
PUC 103 24 103 0
PUC 103 0 103 0
PUC 162 59 162 59
PUC 162 59 162 0
PUC 167 5 167 5
PUC 167 5 167 0
RUC 139 0 139 0
RUC 143 4 143 4
RUC 143 4 143 0
RUC 143 0 143 0
RUC 163 20 163 20
SUC 103 24 103 0
SUC 103 0 103 0
SUC 138 35 138 35
SUC 142 39 142 4
SUC 143 5 143 1
SUC 143 1 143 0
SUC 166 23 166 23
SUC 166 23 166 0
XUC 95 5 95 5
XUC 167 77 167 72
XUC 167 72 167 0
XUC 168 1 168 1
XUC 168 1 168 0
XUC 170 2 170 2
XUC 170 2 170 0
XUC 171 1 171 1
XUC 171 1 171 0
XUC 172 1 172 1
XUC 172 1 172 0
XUC 172 0 172 0
XUC 172 0 172 0
XUC 304 132 304 132
XUC 304 132 304 0
XUC 451 147 451 147
XUC 451 147 451 0
XUC 451 0 451 0
XUC 451 0 451 0
XUC 451 0 451 0
XUC 451 0 451 0
XUC 451 0 451 0
XUC 451 0 451 0
XUC 456 5 456 5
XUC 456 5 456 0
EVC 437 215 437 3
RVC 293 0 293 0
RVC 293 0 293 0
RVC 293 0 293 0
RVC 293 0 293 0
RVC 293 0 293 0
RVC 293 0 293 0
RVC 293 0 293 0
RVC 297 4 297 4
UVC 113 0 113 0
UVC 164 51 164 51
RWC 121 0 121 0
RWC 129 8 129 8
TWC 113 0 113 0
TWC 303 190 303 190
OXC 121 0 121 0
OXC 165 44 165 44
VXC 134 0 134 0
VXC 164 30 164 30
WXC 2 0 2 0
WXC 7 5 7 5
WXC 95 93 95 88
AYC 616 466 616 466
AYC 618 468 618 2
BYC 121 0 121 0
BYC 305 184 305 184
IYC 240 18 240 2
IYC 272 35 272 32
IYC 309 69 309 37
IYC 310 38 310 1
QBD 103 0 103 0
QBD 103 0 103 0
QBD 103 0 103 0
QBD 103 0 103 0
QBD 103 0 103 0
QBD 107 4 107 4
TBD 465 457 465 161
TBD 479 176 479 14
TBD 483 18 483 4
BCD 138 0 138 0
BCD 164 26 164 26
FCD 130 2 130 2
FCD 177 49 177 47
OCD 430 211 430 140
DDD 425 0 425 0
EDD 484 18 484 4
HDD 519 119 519 4
LDD 103 0 103 0
LDD 177 74 177 74
OED 215 0 215 0
OED 215 0 215 0
OED 379 164 379 164
CFD 103 0 103 0
CFD 103 0 103 0
CFD 103 0 103 0
CFD 147 44 147 44
FFD 302 299 302 296
FFD 463 458 463 161
FFD 477 176 477 14
FFD 481 18 481 4
LHD 26 0 26 0
MHD 380 10 380 10
GID 103 0 103 0
GID 164 61 164 61
SID 237 19 237 1
SID 269 34 269 32
SID 316 79 316 47
SID 321 52 321 5
YID 102 0 102 0
YID 107 5 107 5
SJD 463 3 463 3
ZLD 383 0 383 0
ZLD 383 0 383 0
ZLD 386 3 386 3
NMD 480 18 480 4
UMD 132 0 132 0
UMD 162 30 162 30
HOD 25 0 25 0
KOD 158 6 158 6
KOD 170 18 170 12
KOD 170 12 170 0
KOD 204 34 204 34
KOD 329 159 329 125
KOD 367 163 367 38
KOD 367 38 367 0
KOD 368 1 368 1
EQD 34 0 34 0
EQD 176 142 176 142
RQD 172 0 172 0
RQD 287 115 287 115
RQD 288 117 288 1
XQD 101 0 101 0
XQD 162 61 162 61
XQD 257 157 257 95
CRD 308 4 308 4
RRD 301 129 301 129
URD 374 0 374 0
URD 374 0 374 0
URD 378 4 378 4
UTD 134 0 134 0
UTD 159 25 159 25
BUD 159 50 159 50
CUD 23 1 23 0
CUD 23 0 23 0
CUD 158 135 158 135
CUD 216 194 216 58
CUD 227 70 227 11
CUD 252 37 252 25
EVD 158 51 158 51
GVD 107 0 107 0
GVD 158 51 158 51
UVD 56 45 56 45
ZWD 180 1 180 1
UXD 153 0 153 0
UXD 171 18 171 18
YXD 547 39 547 34
YXD 725 213 725 178
YXD 930 384 930 205
KYD 94 45 94 45
AAE 104 70 104 51
AAE 104 51 104 0
AAE 104 0 104 0
AAE 168 65 168 64
FAE 279 0 279 0
PBE 93 93 93 0
PBE 93 0 93 0
PBE 93 0 93 0
PBE 95 2 95 2
PBE 149 56 149 54
PBE 149 54 149 0
PBE 149 0 149 0
PBE 149 0 149 0
UBE 537 0 537 0
UBE 537 0 537 0
UBE 537 0 537 0
UBE 537 0 537 0
UBE 547 10 547 10
ICE 166 0 166 0
ICE 170 4 170 4
CDE 420 0 420 0
JDE 96 0 96 0
JDE 109 13 109 13
JDE 109 13 109 0
JDE 296 188 296 187
LFE 93 24 93 0
LFE 95 2 95 2
LFE 95 2 95 0
LFE 95 0 95 0
LFE 95 0 95 0
LFE 95 0 95 0
LFE 167 72 167 72
NFE 268 1 268 1
PFE 169 166 169 162
NGE 104 0 104 0
NGE 155 51 155 51
RGE 96 0 96 0
RGE 158 62 158 62
TGE 96 0 96 0
TGE 96 0 96 0
TGE 156 60 156 60
VHE 168 80 168 76
LIE 249 0 249 0
LIE 249 0 249 0
LIE 249 0 249 0
LIE 249 0 249 0
LIE 291 43 291 42
QIE 56 13 56 8
QIE 56 8 56 0
QIE 56 0 56 0
QIE 56 0 56 0
QIE 157 101 157 101
QIE 157 101 157 0
RIE 180 0 180 0
RIE 180 0 180 0
RIE 180 0 180 0
RIE 180 0 180 0
RIE 233 53 233 53
DJE 295 228 295 228
PLE 231 19 231 2
PLE 263 35 263 32
PLE 310 80 310 47
PLE 314 52 314 4
WLE 615 0 615 0
WLE 632 17 632 17
WLE 632 17 632 0
WLE 632 0 632 0
WLE 635 3 635 3
QME 111 0 111 0
QME 111 0 111 0
QME 156 45 156 45
TME 131 0 131 0
TME 155 24 155 24
TME 204 74 204 49
TME 293 139 293 89
INE 115 0 115 0
INE 156 41 156 41
IOE 103 0 103 0
IOE 294 191 294 191
ROE 381 27 381 21
ROE 411 52 411 30
SPE 117 0 117 0
SPE 154 37 154 37
IQE 167 0 167 0
IQE 168 1 168 1
ZQE 358 0 358 0
ZQE 359 1 359 1
IRE 248 0 248 0
IRE 248 0 248 0
IRE 248 0 248 0
IRE 248 0 248 0
IRE 354 106 354 106
JRE 156 0 156 0
JRE 168 12 168 12
KRE 53 0 53 0
KRE 91 38 91 38
MUE 43 43 43 0
MUE 43 0 43 0
MUE 43 0 43 0
MUE 49 6 49 6
MUE 155 112 155 106
MUE 155 106 155 0
MUE 204 49 204 49
MUE 204 49 204 0
MUE 209 5 209 5
MUE 209 5 209 0
OUE 31 2 31 2
OUE 68 39 68 37
OUE 126 95 126 58
OUE 126 58 126 0
OUE 126 0 126 0
OUE 126 0 126 0
HVE 151 57 151 0
HVE 162 11 162 11
HVE 162 11 162 0
HVE 162 0 162 0
HVE 162 0 162 0
HVE 166 4 166 4
NVE 164 0 164 0
NVE 167 3 167 3
UVE 342 335 342 0
UVE 469 127 469 127
UVE 469 127 469 0
UVE 471 2 471 2
VXE 128 8 128 0
PDF 146 0 146 0
PDF 164 18 164 18
RFF 51 0 51 0
RFF 150 99 150 99
IGF 146 0 146 0
IGF 164 18 164 18
UGF 279 0 279 0
UGF 286 7 286 7
UGF 286 7 286 0
UGF 286 0 286 0
UGF 286 0 286 0
UGF 286 0 286 0
UGF 286 0 286 0
UGF 290 4 290 4
WGF 227 1 227 1
CHF 87 65 87 0
CHF 87 0 87 0
CHF 87 0 87 0
CHF 93 6 93 6
CHF 150 63 150 57
CHF 150 57 150 0
ZKF 119 0 119 0
ZKF 119 0 119 0
ZKF 148 29 148 29
OLF 85 0 85 0
OLF 85 0 85 0
OLF 85 0 85 0
OLF 137 52 137 52
OLF 339 255 339 202
OLF 339 203 339 0
OLF 344 6 344 5
OLF 363 25 363 19
SLF 159 0 159 0
SLF 159 0 159 0
YLF 155 5 155 5
AMF 150 145 150 140
BMF 44 0 44 0
BMF 197 153 197 153
RMF 363 5 363 1
YMF 97 0 97 0
YMF 148 51 148 51
QPF 365 7 365 6
QPF 370 12 370 5
TPF 98 0 98 0
TPF 149 51 149 51
UPF 62 6 62 6
UPF 138 82 138 76
UPF 138 76 138 0
ZPF 98 0 98 0
ZPF 150 52 150 52
HQF 89 0 89 0
HQF 161 72 161 72
JQF 103 0 103 0
JQF 103 0 103 0
JQF 221 118 221 118
SQF 802 0 802 0
SQF 825 23 825 23
SQF 825 23 825 0
SQF 825 0 825 0
SQF 846 21 846 21
SQF 849 24 849 3
SQF 850 4 850 1
SQF 852 3 852 2
IRF 158 0 158 0
IRF 162 4 162 4
PRF 257 0 257 0
PRF 290 33 290 33
QRF 96 0 96 0
QRF 147 51 147 51
RRF 161 0 161 0
RRF 162 1 162 1
URF 85 24 85 0
URF 85 0 85 0
URF 87 2 87 2
URF 87 2 87 0
URF 87 0 87 0
URF 87 0 87 0
URF 146 59 146 59
YTF 287 79 287 79
MUF 142 0 142 0
MUF 146 4 146 4
SUF 164 0 164 0
SUF 195 31 195 31
XUF 476 279 476 4
LWF 97 0 97 0
LWF 148 51 148 51
GXF 113 5 113 5
GXF 147 39 147 34
MZF 86 0 86 0
MZF 147 61 147 61
EBG 144 16 144 16
QCG 464 18 464 4
EDG 178 10 178 5
RDG 93 1 93 1
RDG 143 51 143 50
AEG 374 0 374 0
AEG 381 7 381 7
YEG 143 108 143 108
FFG 118 3 118 2
FFG 140 25 140 22
VFG 106 0 106 0
VFG 156 50 156 50
GGG 474 280 474 4
IGG 100 0 100 0
IGG 144 44 144 44
NGG 107 0 107 0
NGG 156 50 156 49
QGG 79 0 79 0
QGG 79 0 79 0
QGG 143 64 143 64
SHG 41 0 41 0
SHG 141 101 141 100
THG 119 0 119 0
THG 123 4 123 4
THG 123 4 123 0
THG 123 0 123 0
THG 143 20 143 20
UKG 144 61 144 59
XKG 52 0 52 0
XKG 63 11 63 11
XKG 63 11 63 0
XKG 63 0 63 0
XKG 63 0 63 0
XKG 71 8 71 8
ALG 97 0 97 0
ALG 104 7 104 7
ALG 104 7 104 0
NLG 116 0 116 0
NLG 156 40 156 40
PLG 128 0 128 0
PLG 143 15 143 15
RLG 100 9 100 8
RLG 100 8 100 0
RLG 100 0 100 0
RLG 100 0 100 0
RLG 140 40 140 40
TLG 142 43 142 43
ENG 20 0 20 0
ENG 144 124 144 124
LNG 118 0 118 0
LNG 118 0 118 0
SNG 101 0 101 0
SNG 142 41 142 41
XRG 98 0 98 0
XRG 142 44 142 44
CSG 70 0 70 0
CSG 142 72 142 72
FSG 288 3 288 3
QUG 4 0 4 0
QUG 37 33 37 33
DVG 367 0 367 0
DVG 371 4 371 4
OVG 496 119 496 4
FWG 453 416 453 0
DXG 77 18 77 18
EXG 396 0 396 0
QXG 111 0 111 0
QXG 142 31 142 31
AYG 115 0 115 0
AYG 115 0 115 0
AYG 116 1 116 1
AYG 116 1 116 0
AYG 116 0 116 0
AYG 280 164 280 164
AYG 296 181 296 16
AYG 296 16 296 0
AYG 296 0 296 0
GYG 150 0 150 0
GYG 154 4 154 4
HYG 122 0 122 0
HYG 141 19 141 19
XYG 115 0 115 0
XYG 141 26 141 26
ZZG 80 0 80 0
ZZG 154 74 154 74
JAH 320 0 320 0
MAH 333 0 333 0
MAH 333 0 333 0
MAH 333 0 333 0
MAH 333 0 333 0
MAH 357 24 357 24
NAH 121 68 121 68
NAH 121 69 121 0
NAH 121 1 121 0
NAH 139 18 139 18
RAH 152 3 152 3
BBH 78 24 78 0
BBH 78 0 78 0
BBH 137 59 137 59
BBH 137 59 137 0
BBH 149 12 149 12
BBH 149 12 149 0
BBH 149 0 149 0
BBH 149 0 149 0
BBH 152 3 152 3
QBH 528 0 528 0
QBH 540 12 540 12
QBH 540 12 540 0
QBH 540 0 540 0
QBH 543 3 543 3
TCH 257 222 257 172
TCH 257 172 257 0
TCH 263 6 263 6
ADH 268 0 268 0
GDH 257 59 257 59
GDH 257 59 257 0
GDH 283 26 283 26
GDH 283 26 283 0
GDH 283 0 283 0
GDH 283 0 283 0
SDH 69 0 69 0
SDH 140 71 140 71
IEH 273 0 273 0
IEH 273 0 273 0
IEH 273 0 273 0
IEH 273 0 273 0
IEH 299 26 299 26
JEH 139 43 139 43
MEH 269 27 269 27
MEH 269 27 269 0
MEH 269 0 269 0
MEH 269 0 269 0
MEH 279 10 279 10
UEH 107 0 107 0
UEH 149 42 149 42
IGH 0 0 0 0
IGH 0 0 0 0
IGH 0 0 0 0
IGH 0 0 0 0
IGH 0 0 0 0
IGH 0 0 0 0
IGH 0 0 0 0
IGH 0 0 0 0
IGH 0 0 0 0
IGH 0 0 0 0
IGH 0 0 0 0
IGH 0 0 0 0
IGH 0 0 0 0
IGH 351 351 351 351
IGH 351 351 351 0
IGH 352 2 352 1
IGH 355 5 355 3
JGH 1 1 1 1
VGH 0 0 0 0
VGH 0 0 0 0
VGH 0 0 0 0
VGH 0 0 0 0
VGH 0 0 0 0
VGH 0 0 0 0
VGH 0 0 0 0
VGH 0 0 0 0
VGH 0 0 0 0
VGH 0 0 0 0
VGH 0 0 0 0
VGH 0 0 0 0
VGH 0 0 0 0
VGH 0 0 0 0
VGH 0 0 0 0
VGH 0 0 0 0
VGH 0 0 0 0
VGH 0 0 0 0
VGH 0 0 0 0
VGH 0 0 0 0
VGH 0 0 0 0
VGH 0 0 0 0
VGH 0 0 0 0
VGH 0 0 0 0
VGH 0 0 0 0
VGH 0 0 0 0
VGH 0 0 0 0
VGH 0 0 0 0
VGH 0 0 0 0
VGH 0 0 0 0
VGH 0 0 0 0
VGH 0 0 0 0
VGH 0 0 0 0
VGH 0 0 0 0
VGH 0 0 0 0
VGH 0 0 0 0
VGH 0 0 0 0
VGH 0 0 0 0
VGH 0 0 0 0
VGH 0 0 0 0
VGH 1 1 1 1
LHH 0 0 0 0
LHH 0 0 0 0
LHH 0 0 0 0
LHH 0 0 0 0
LHH 0 0 0 0
LHH 0 0 0 0
LHH 0 0 0 0
LHH 0 0 0 0
LHH 0 0 0 0
LHH 0 0 0 0
LHH 0 0 0 0
LHH 0 0 0 0
LHH 0 0 0 0
LHH 4 4 4 4
TIH 211 41 211 0
TIH 219 8 219 8
TIH 232 21 232 13
CJH 97 0 97 0
CJH 138 41 138 41
DJH 149 3 149 3
EKH 93 2 93 1
EKH 104 13 104 11
EKH 105 12 105 1
EKH 105 1 105 0
EKH 105 1 105 0
EKH 134 30 134 29
FKH 131 41 131 40
FKH 135 45 135 4
TKH 93 5 93 5
TKH 136 49 136 43
WKH 48 38 48 36
WKH 48 36 48 0
WKH 71 23 71 23
WKH 71 24 71 0
WKH 71 0 71 0
WKH 71 0 71 0
WKH 71 0 71 0
WKH 71 0 71 0
WKH 114 43 114 43
WKH 185 114 185 71
WKH 187 73 187 2
WKH 187 3 187 0
WKH 187 0 187 0
WKH 187 0 187 0
WKH 187 0 187 0
WKH 199 12 199 12
WKH 225 39 225 26
XKH 96 0 96 0
XKH 137 41 137 41
DMH 264 0 264 0
CNH 366 1 366 1
APH 0 0 0 0
APH 0 0 0 0
APH 0 0 0 0
APH 0 0 0 0
APH 0 0 0 0
APH 0 0 0 0
APH 0 0 0 0
APH 0 0 0 0
APH 0 0 0 0
APH 0 0 0 0
APH 0 0 0 0
APH 0 0 0 0
APH 0 0 0 0
APH 0 0 0 0
APH 0 0 0 0
APH 0 0 0 0
APH 0 0 0 0
APH 0 0 0 0
APH 0 0 0 0
APH 0 0 0 0
APH 0 0 0 0
APH 0 0 0 0
APH 0 0 0 0
APH 0 0 0 0
APH 0 0 0 0
APH 0 0 0 0
APH 0 0 0 0
APH 0 0 0 0
APH 0 0 0 0
APH 0 0 0 0
APH 0 0 0 0
APH 0 0 0 0
APH 0 0 0 0
APH 0 0 0 0
APH 0 0 0 0
APH 0 0 0 0
APH 0 0 0 0
APH 0 0 0 0
APH 0 0 0 0
APH 0 0 0 0
APH 0 0 0 0
APH 0 0 0 0
APH 0 0 0 0
APH 0 0 0 0
APH 0 0 0 0
APH 0 0 0 0
APH 0 0 0 0
APH 0 0 0 0
APH 0 0 0 0
APH 0 0 0 0
APH 0 0 0 0
APH 0 0 0 0
APH 0 0 0 0
APH 0 0 0 0
APH 0 0 0 0
APH 0 0 0 0
APH 0 0 0 0
APH 0 0 0 0
APH 0 0 0 0
APH 0 0 0 0
APH 0 0 0 0
APH 0 0 0 0
APH 0 0 0 0
APH 0 0 0 0
APH 0 0 0 0
APH 0 0 0 0
APH 0 0 0 0
APH 0 0 0 0
APH 0 0 0 0
APH 0 0 0 0
APH 0 0 0 0
APH 0 0 0 0
APH 0 0 0 0
APH 0 0 0 0
APH 0 0 0 0
APH 0 0 0 0
APH 0 0 0 0
APH 0 0 0 0
APH 0 0 0 0
APH 0 0 0 0
APH 0 0 0 0
APH 0 0 0 0
APH 0 0 0 0
APH 0 0 0 0
APH 0 0 0 0
APH 0 0 0 0
APH 0 0 0 0
APH 0 0 0 0
APH 0 0 0 0
APH 0 0 0 0
APH 0 0 0 0
APH 0 0 0 0
APH 0 0 0 0
APH 0 0 0 0
APH 0 0 0 0
APH 0 0 0 0
APH 0 0 0 0
APH 0 0 0 0
APH 0 0 0 0
APH 0 0 0 0
APH 0 0 0 0
APH 0 0 0 0
APH 0 0 0 0
APH 0 0 0 0
APH 0 0 0 0
APH 0 0 0 0
APH 0 0 0 0
APH 0 0 0 0
APH 0 0 0 0
APH 0 0 0 0
APH 0 0 0 0
APH 0 0 0 0
APH 0 0 0 0
APH 0 0 0 0
APH 0 0 0 0
APH 0 0 0 0
APH 0 0 0 0
APH 0 0 0 0
APH 0 0 0 0
APH 0 0 0 0
APH 0 0 0 0
APH 0 0 0 0
APH 0 0 0 0
APH 0 0 0 0
APH 0 0 0 0
APH 0 0 0 0
APH 0 0 0 0
APH 0 0 0 0
APH 0 0 0 0
APH 0 0 0 0
APH 0 0 0 0
APH 0 0 0 0
APH 0 0 0 0
APH 0 0 0 0
APH 0 0 0 0
APH 0 0 0 0
APH 0 0 0 0
APH 0 0 0 0
APH 0 0 0 0
APH 0 0 0 0
APH 0 0 0 0
APH 0 0 0 0
APH 0 0 0 0
APH 0 0 0 0
APH 0 0 0 0
APH 0 0 0 0
APH 0 0 0 0
APH 0 0 0 0
APH 0 0 0 0
APH 0 0 0 0
APH 0 0 0 0
APH 0 0 0 0
APH 0 0 0 0
APH 0 0 0 0
APH 0 0 0 0
APH 0 0 0 0
APH 0 0 0 0
APH 0 0 0 0
APH 0 0 0 0
APH 0 0 0 0
APH 0 0 0 0
APH 0 0 0 0
APH 0 0 0 0
APH 0 0 0 0
APH 0 0 0 0
APH 0 0 0 0
APH 0 0 0 0
APH 36 36 36 36
BPH 0 0 0 0
BPH 0 0 0 0
BPH 0 0 0 0
BPH 0 0 0 0
BPH 0 0 0 0
BPH 0 0 0 0
BPH 0 0 0 0
BPH 0 0 0 0
BPH 0 0 0 0
BPH 0 0 0 0
BPH 0 0 0 0
BPH 0 0 0 0
BPH 0 0 0 0
BPH 0 0 0 0
BPH 0 0 0 0
BPH 0 0 0 0
BPH 0 0 0 0
BPH 0 0 0 0
BPH 0 0 0 0
BPH 0 0 0 0
BPH 0 0 0 0
BPH 0 0 0 0
BPH 0 0 0 0
BPH 0 0 0 0
BPH 0 0 0 0
BPH 0 0 0 0
BPH 0 0 0 0
BPH 0 0 0 0
BPH 0 0 0 0
BPH 0 0 0 0
BPH 0 0 0 0
BPH 0 0 0 0
BPH 0 0 0 0
BPH 0 0 0 0
BPH 0 0 0 0
BPH 0 0 0 0
BPH 0 0 0 0
BPH 0 0 0 0
BPH 0 0 0 0
BPH 0 0 0 0
BPH 0 0 0 0
BPH 0 0 0 0
BPH 0 0 0 0
BPH 0 0 0 0
XPH 114 0 114 0
XPH 114 0 114 0
XPH 137 23 137 23
GQH 291 6 291 6
GQH 291 6 291 0
GQH 291 0 291 0
GQH 291 0 291 0
GQH 294 3 294 3
KQH 116 34 116 34
KQH 228 147 228 112
KQH 228 112 228 0
KQH 228 0 228 0
KQH 232 4 232 4
NQH 224 0 224 0
NQH 224 0 224 0
NQH 224 0 224 0
NQH 227 3 227 3
NQH 228 4 228 1
NQH 228 1 228 0
NQH 228 0 228 0
NQH 228 0 228 0
NQH 228 0 228 0
NQH 228 0 228 0
NQH 233 5 233 5
CRH 98 4 98 0
CRH 98 0 98 0
CRH 143 45 143 45
ERH 96 0 96 0
ERH 137 41 137 41
KRH 109 6 109 6
KRH 147 44 147 38
TRH 133 45 133 4
BSH 65 61 65 59
GSH 423 0 423 0
GSH 423 0 423 0
GSH 423 0 423 0
GSH 423 0 423 0
GSH 464 41 464 41
ATH 0 0 0 0
ATH 0 0 0 0
ATH 0 0 0 0
ATH 0 0 0 0
ATH 0 0 0 0
ATH 0 0 0 0
ATH 0 0 0 0
ATH 0 0 0 0
ATH 0 0 0 0
ATH 0 0 0 0
ATH 22 22 22 22
BTH 0 0 0 0
BTH 0 0 0 0
BTH 0 0 0 0
BTH 0 0 0 0
BTH 0 0 0 0
BTH 0 0 0 0
BTH 0 0 0 0
BTH 0 0 0 0
BTH 0 0 0 0
BTH 0 0 0 0
BTH 0 0 0 0
BTH 0 0 0 0
BTH 0 0 0 0
BTH 0 0 0 0
BTH 0 0 0 0
BTH 0 0 0 0
BTH 0 0 0 0
BTH 0 0 0 0
BTH 0 0 0 0
BTH 0 0 0 0
BTH 0 0 0 0
BTH 0 0 0 0
BTH 0 0 0 0
BTH 20 20 20 20
PVH 131 55 131 55
QVH 155 92 155 92
PWH 441 1 441 1
XWH 318 0 318 0
XWH 321 3 321 3
KXH 103 0 103 0
KXH 136 33 136 33
MXH 116 0 116 0
MXH 176 60 176 60
FYH 0 0 0 0
FYH 0 0 0 0
FYH 0 0 0 0
FYH 0 0 0 0
FYH 0 0 0 0
FYH 0 0 0 0
FYH 0 0 0 0
FYH 0 0 0 0
ZBI 144 0 144 0
ZBI 144 0 144 0
ZBI 147 3 147 3
YDI 329 255 329 255
DEI 115 73 115 0
FEI 148 4 148 4
VFI 120 4 120 0
VFI 120 0 120 0
VFI 181 61 181 61
JHI 273 163 273 163
WHI 127 53 127 0
WHI 142 15 142 15
ZII 70 0 70 0
ZII 270 200 270 200
DJI 129 35 129 35
QJI 449 18 449 4
GLI 113 5 113 5
GLI 299 191 299 186
GLI 447 334 447 148
GLI 617 318 617 170
GLI 940 493 940 323
HLI 70 0 70 0
HLI 75 5 75 5
YMI 27 6 27 3
YMI 34 10 34 7
YMI 42 15 42 8
YMI 48 14 48 6
YMI 48 6 48 0
YMI 48 0 48 0
RQI 77 0 77 0
RQI 129 52 129 52
UQI 12 1 12 0
UQI 126 115 126 114
BRI 70 2 70 1
BRI 70 1 70 0
BRI 70 0 70 0
BRI 70 0 70 0
BRI 129 59 129 59
CRI 98 0 98 0
CRI 143 45 143 45
LRI 230 57 230 1
ZRI 96 0 96 0
ZRI 96 0 96 0
JVI 463 325 463 325
YVI 77 0 77 0
YVI 128 51 128 51
WYI 127 29 127 4
YYI 95 0 95 0
YYI 141 46 141 46
AZI 231 0 231 0
AZI 231 0 231 0
BZI 230 89 230 0
DZI 117 0 117 0
DZI 126 9 126 9
EZI 130 0 130 0
EZI 140 11 140 10
NZI 94 0 94 0
NZI 94 0 94 0
NZI 140 46 140 46
OZI 127 61 127 61
UBJ 0 0 0 0
UBJ 0 0 0 0
UBJ 33 33 33 33
LCJ 456 275 456 4
QCJ 109 43 109 43
QCJ 149 83 149 40
QCJ 149 40 149 0
QCJ 173 24 173 24
QCJ 173 24 173 0
QCJ 173 0 173 0
QCJ 180 7 180 7
XCJ 255 0 255 0
XCJ 622 367 622 367
XCJ 622 367 622 0
XCJ 628 6 628 6
MDJ 101 0 101 0
MDJ 126 25 126 25
NDJ 2 2 2 2
NDJ 2 2 2 0
NDJ 2 0 2 0
NDJ 7 5 7 5
VDJ 2 0 2 0
VDJ 4 3 4 2
VDJ 61 60 61 57
WDJ 125 35 125 33
EEJ 152 85 152 0
JEJ 226 41 226 0
JEJ 226 0 226 0
JEJ 229 3 229 3
NEJ 316 80 316 80
FFJ 236 0 236 0
FFJ 236 0 236 0
FFJ 239 3 239 3
IFJ 153 31 153 12
IFJ 154 13 154 1
IFJ 159 6 159 5
IFJ 160 6 160 1
LFJ 0 0 0 0
LFJ 0 0 0 0
LFJ 0 0 0 0
LFJ 0 0 0 0
LFJ 0 0 0 0
LFJ 0 0 0 0
LFJ 0 0 0 0
LFJ 0 0 0 0
LFJ 0 0 0 0
LFJ 0 0 0 0
LFJ 63 63 63 63
LFJ 63 63 63 0
LFJ 68 6 68 5
LFJ 126 64 126 58
WHJ 47 0 47 0
WHJ 127 80 127 80
HIJ 110 0 110 0
HIJ 265 155 265 155
TIJ 89 72 89 0
TIJ 89 0 89 0
TIJ 89 0 89 0
TIJ 92 3 92 3
TIJ 263 175 263 171
TIJ 263 171 263 0
FJJ 154 6 154 5
FJJ 155 6 155 1
LJJ 9 6 9 2
LJJ 9 2 9 0
LJJ 9 0 9 0
LJJ 9 0 9 0
LJJ 63 54 63 54
LJJ 63 54 63 0
LJJ 63 0 63 0
LJJ 63 0 63 0
LJJ 136 73 136 73
ELJ 0 0 0 0
ELJ 0 0 0 0
ELJ 0 0 0 0
ELJ 0 0 0 0
ELJ 0 0 0 0
ELJ 0 0 0 0
ELJ 0 0 0 0
ELJ 0 0 0 0
ELJ 87 87 87 87
CMJ 133 0 133 0
CMJ 171 38 171 38
PNJ 63 0 63 0
PNJ 75 12 75 12
PNJ 75 12 75 0
PNJ 81 7 81 6
PNJ 82 8 82 1
PNJ 261 181 261 179
PNJ 277 196 277 16
PNJ 277 16 277 0
PNJ 280 3 280 3
AOJ 474 210 474 114
AOJ 478 119 478 4
DOJ 217 94 217 0
DOJ 217 0 217 0
APJ 443 18 443 4
EPJ 155 6 155 5
EPJ 156 6 156 1
NPJ 147 0 147 0
NPJ 171 24 171 24
SPJ 82 6 82 0
SPJ 82 0 82 0
SPJ 123 41 123 41
VPJ 134 0 134 0
VPJ 137 3 137 3
EQJ 92 0 92 0
EQJ 92 0 92 0
HQJ 298 0 298 0
ARJ 246 4 246 4
KRJ 61 32 61 0
KRJ 61 0 61 0
KRJ 61 0 61 0
KRJ 164 103 164 103
KRJ 327 266 327 163
KRJ 329 166 329 2
KRJ 366 40 366 37
KRJ 387 58 387 21
KRJ 387 21 387 0
ESJ 147 13 147 1
ESJ 152 6 152 5
ESJ 153 6 153 1
TUJ 291 185 291 185
TUJ 439 333 439 148
TUJ 447 156 447 8
TUJ 447 8 447 0
TUJ 451 5 451 4
GVJ 117 0 117 0
GVJ 132 15 132 15
GVJ 132 15 132 0
GVJ 132 0 132 0
GVJ 132 0 132 0
GVJ 237 105 237 105
GVJ 237 105 237 0
GVJ 237 0 237 0
GVJ 237 0 237 0
GVJ 241 4 241 4
RVJ 477 346 477 4
QWJ 97 0 97 0
QWJ 97 0 97 0
QWJ 97 0 97 0
QWJ 123 26 123 26
TWJ 122 32 122 28
TWJ 217 124 217 95
AXJ 142 32 142 0
AXJ 144 2 144 2
AXJ 169 27 169 25
KXJ 0 0 0 0
KXJ 51 51 51 51
MXJ 105 0 105 0
MXJ 122 17 122 17
HYJ 442 18 442 4
QYJ 278 0 278 0
JZJ 96 91 96 84
JZJ 96 85 96 0
JZJ 174 78 174 78
MZJ 133 2 133 2
DCK 152 6 152 5
DCK 153 6 153 1
HCK 153 6 153 5
HCK 154 6 154 1
NCK 59 3 59 0
NCK 59 0 59 0
NCK 216 157 216 157
NCK 247 188 247 31
NCK 247 31 247 0
NCK 247 0 247 0
NCK 247 0 247 0
NCK 248 1 248 1
NCK 248 1 248 0
NCK 252 4 252 4
QCK 362 0 362 0
QCK 362 0 362 0
RCK 153 6 153 5
RCK 154 6 154 1
WCK 326 12 326 12
ZCK 153 6 153 5
ZCK 154 6 154 1
XDK 153 6 153 5
XDK 154 6 154 1
WFK 27 0 27 0
WFK 27 0 27 0
WFK 27 0 27 0
WFK 27 0 27 0
WFK 113 86 113 86
WFK 143 116 143 30
WFK 305 192 305 162
WFK 307 164 307 2
EGK 153 6 153 5
EGK 154 6 154 1
GGK 152 6 152 5
GGK 153 6 153 1
GGK 186 35 186 33
GGK 191 38 191 5
GGK 193 8 193 2
HGK 152 6 152 5
HGK 153 6 153 1
LGK 68 1 68 1
LGK 71 5 71 3
LGK 133 66 133 62
TGK 95 0 95 0
TGK 132 37 132 37
UGK 152 6 152 5
UGK 153 6 153 1
FHK 151 6 151 5
FHK 152 6 152 1
HHK 152 6 152 5
HHK 153 6 153 1
KHK 151 6 151 5
KHK 152 6 152 1
RHK 166 0 166 0
RHK 174 8 174 8
SHK 152 6 152 5
SHK 153 6 153 1
UHK 129 8 129 0
UHK 129 0 129 0
UHK 129 0 129 0
WHK 151 6 151 5
WHK 152 6 152 1
YHK 151 6 151 5
YHK 152 6 152 1
YHK 185 35 185 33
YHK 190 38 190 5
YHK 192 8 192 2
AIK 356 11 356 4
WIK 0 0 0 0
WIK 0 0 0 0
WIK 0 0 0 0
WIK 0 0 0 0
WIK 0 0 0 0
WIK 0 0 0 0
WIK 0 0 0 0
WIK 0 0 0 0
WIK 0 0 0 0
WIK 0 0 0 0
WIK 0 0 0 0
WIK 0 0 0 0
WIK 0 0 0 0
WIK 0 0 0 0
WIK 0 0 0 0
WIK 0 0 0 0
WIK 0 0 0 0
WIK 0 0 0 0
WIK 0 0 0 0
WIK 0 0 0 0
WIK 0 0 0 0
WIK 0 0 0 0
WIK 0 0 0 0
WIK 0 0 0 0
WIK 0 0 0 0
WIK 0 0 0 0
WIK 0 0 0 0
WIK 0 0 0 0
WIK 0 0 0 0
WIK 0 0 0 0
WIK 0 0 0 0
WIK 0 0 0 0
WIK 0 0 0 0
WIK 0 0 0 0
WIK 0 0 0 0
WIK 0 0 0 0
WIK 0 0 0 0
WIK 0 0 0 0
WIK 0 0 0 0
WIK 0 0 0 0
WIK 0 0 0 0
WIK 0 0 0 0
WIK 0 0 0 0
WIK 0 0 0 0
WIK 0 0 0 0
WIK 0 0 0 0
WIK 0 0 0 0
WIK 0 0 0 0
WIK 0 0 0 0
WIK 0 0 0 0
WIK 0 0 0 0
WIK 0 0 0 0
WIK 0 0 0 0
WIK 0 0 0 0
WIK 0 0 0 0
WIK 0 0 0 0
WIK 0 0 0 0
WIK 0 0 0 0
WIK 0 0 0 0
WIK 0 0 0 0
WIK 0 0 0 0
WIK 0 0 0 0
WIK 0 0 0 0
WIK 0 0 0 0
WIK 0 0 0 0
WIK 0 0 0 0
WIK 0 0 0 0
WIK 0 0 0 0
WIK 0 0 0 0
WIK 0 0 0 0
WIK 0 0 0 0
WIK 0 0 0 0
WIK 0 0 0 0
WIK 0 0 0 0
WIK 0 0 0 0
WIK 0 0 0 0
WIK 0 0 0 0
WIK 0 0 0 0
WIK 0 0 0 0
WIK 0 0 0 0
WIK 0 0 0 0
WIK 0 0 0 0
WIK 0 0 0 0
WIK 0 0 0 0
WIK 0 0 0 0
WIK 0 0 0 0
WIK 0 0 0 0
WIK 0 0 0 0
WIK 0 0 0 0
WIK 0 0 0 0
WIK 0 0 0 0
WIK 0 0 0 0
WIK 0 0 0 0
WIK 0 0 0 0
WIK 0 0 0 0
WIK 0 0 0 0
WIK 0 0 0 0
WIK 0 0 0 0
WIK 0 0 0 0
WIK 0 0 0 0
WIK 0 0 0 0
WIK 0 0 0 0
WIK 0 0 0 0
WIK 0 0 0 0
WIK 0 0 0 0
WIK 0 0 0 0
WIK 0 0 0 0
WIK 0 0 0 0
WIK 0 0 0 0
WIK 0 0 0 0
WIK 0 0 0 0
WIK 0 0 0 0
WIK 0 0 0 0
WIK 0 0 0 0
WIK 0 0 0 0
WIK 0 0 0 0
WIK 0 0 0 0
WIK 0 0 0 0
WIK 0 0 0 0
WIK 0 0 0 0
WIK 0 0 0 0
WIK 0 0 0 0
WIK 0 0 0 0
WIK 0 0 0 0
WIK 0 0 0 0
WIK 0 0 0 0
WIK 0 0 0 0
WIK 0 0 0 0
WIK 0 0 0 0
WIK 0 0 0 0
WIK 0 0 0 0
WIK 0 0 0 0
WIK 0 0 0 0
WIK 0 0 0 0
WIK 0 0 0 0
WIK 0 0 0 0
WIK 0 0 0 0
WIK 0 0 0 0
WIK 0 0 0 0
WIK 0 0 0 0
WIK 0 0 0 0
WIK 0 0 0 0
WIK 0 0 0 0
WIK 0 0 0 0
WIK 0 0 0 0
WIK 347 347 347 347
WIK 347 347 347 0
WIK 350 4 350 3
WIK 357 11 357 7
CJK 375 0 375 0
CJK 375 0 375 0
CJK 375 0 375 0
CJK 375 0 375 0
CJK 375 0 375 0
CJK 397 22 397 22
HJK 390 0 390 0
HJK 392 2 392 2
OLK 57 3 57 3
OLK 57 3 57 0
OLK 57 0 57 0
OLK 128 71 128 71
OLK 128 71 128 0
OLK 128 0 128 0
OLK 128 0 128 0
OLK 132 4 132 4
GMK 151 6 151 5
GMK 152 6 152 1
IMK 96 0 96 0
IMK 260 164 260 164
KMK 234 103 234 103
KMK 234 103 234 0
KMK 234 0 234 0
KMK 234 0 234 0
KMK 237 3 237 3
LMK 150 6 150 5
LMK 151 6 151 1
RMK 150 6 150 5
RMK 151 6 151 1
LNK 148 6 148 5
LNK 149 6 149 1
UNK 148 6 148 5
UNK 149 6 149 1
YNK 377 2 377 2
IPK 267 0 267 0
QPK 857 0 857 0
QPK 879 22 879 22
WPK 128 69 128 69
WPK 128 69 128 0
WPK 128 0 128 0
WPK 128 0 128 0
WPK 132 4 132 4
PQK 56 18 56 0
PQK 136 81 136 80
TRK 675 35 675 27
TRK 678 31 678 3
TRK 838 164 838 160
FTK 148 6 148 5
FTK 149 6 149 1
HTK 58 1 58 1
HTK 116 59 116 58
LTK 148 6 148 5
LTK 149 6 149 1
OTK 152 0 152 0
OTK 152 0 152 0
UTK 113 21 113 21
UTK 116 24 116 3
UTK 116 3 116 0